/*--------------------------------*- C++ -*----------------------------------*\
| =========                 |                                                 |
| \\      /  F ield         | OpenFOAM: The Open Source CFD Toolbox           |
|  \\    /   O peration     | Version:  v2106                                 |
|   \\  /    A nd           | Website:  www.openfoam.com                      |
|    \\/     M anipulation  |                                                 |
\*---------------------------------------------------------------------------*/
FoamFile
{
    version     2.0;
    format      ascii;
    arch        "LSB;label=32;scalar=64";
    class       featureEdgeMesh;
    location    "constant/triSurface";
    object      VT5_nozzle_Itay.eMesh;
}
// * * * * * * * * * * * * * * * * * * * * * * * * * * * * * * * * * * * * * //


// points:

156
(
(-0.003 0.004 0.003)
(0.004 0.003 0.003)
(0.003 -0.004 0.003)
(-0.004 -0.003 0.003)
(-0.004 -0.003 0)
(0.003 -0.004 0)
(0.004 0.003 0)
(-0.003 0.004 0)
(-0.0195215 0.004 0.003)
(0.004 0.0195215 0.003)
(0.0192896 -0.005 0.003)
(-0.005 -0.0192896 0.003)
(0.0192896 -0.005 0)
(-0.005 -0.0192896 0)
(0.004 0.0195215 0)
(-0.0195215 0.004 0)
(-0.00447214 0.00223607 0.003)
(0.00624125 0.0241051 0.003)
(0.00377055 0.0246129 0.003)
(0.005 -3.26944e-17 0.003)
(0.00447214 -0.00223607 0.003)
(-5.23722e-17 -0.005 0.003)
(-0.00223607 -0.00447214 0.003)
(-0.0237581 0.00745414 0.003)
(-0.0243903 0.00501233 0.003)
(1.74574e-17 0.005 0.003)
(0.00223607 0.00447214 0.003)
(-0.00624125 -0.0241051 0.003)
(-0.00377055 -0.0246129 0.003)
(-0.0086479 -0.02335 0.003)
(0.0243903 0.00501233 0.003)
(0.0237581 0.00745414 0.003)
(0.0152414 0.0196903 0.003)
(0.0131712 0.0211312 0.003)
(0.0109658 0.0223553 0.003)
(0.0086479 0.02335 0.003)
(0.0237581 -0.00745414 0.003)
(0.0243903 -0.00501233 0.003)
(0.0171553 -0.0180473 0.003)
(0.0188931 -0.0162192 0.003)
(-0.005 0 0.003)
(0.0247722 -0.00251909 0.003)
(0.0249 1.41072e-17 0.003)
(0.0247722 0.00251909 0.003)
(0.00126116 0.024868 0.003)
(-0.00126116 0.024868 0.003)
(-0.00377055 0.0246129 0.003)
(-0.00624125 0.0241051 0.003)
(0.022882 0.00981946 0.003)
(0.0217712 0.012084 0.003)
(0.020437 0.0142246 0.003)
(-0.00126116 -0.024868 0.003)
(0.00126116 -0.024868 0.003)
(0.00377055 -0.0246129 0.003)
(0.020437 -0.0142246 0.003)
(0.0217712 -0.012084 0.003)
(0.022882 -0.00981946 0.003)
(0.0188931 0.0162192 0.003)
(0.0171553 0.0180473 0.003)
(-0.0086479 0.02335 0.003)
(-0.0109658 0.0223553 0.003)
(-0.0131712 0.0211312 0.003)
(-0.0152414 0.0196903 0.003)
(-0.0171553 0.0180473 0.003)
(-0.0188931 0.0162192 0.003)
(-0.020437 0.0142246 0.003)
(-0.0217712 0.012084 0.003)
(-0.022882 0.00981946 0.003)
(0.00624125 -0.0241051 0.003)
(0.0086479 -0.02335 0.003)
(0.0109658 -0.0223553 0.003)
(-0.0247722 0.00251909 0.003)
(-0.0249 0 0.003)
(-0.0247722 -0.00251909 0.003)
(-0.0243903 -0.00501233 0.003)
(-0.0217712 -0.012084 0.003)
(-0.020437 -0.0142246 0.003)
(-0.0188931 -0.0162192 0.003)
(-0.0109658 -0.0223553 0.003)
(-0.0131712 -0.0211312 0.003)
(0.0131712 -0.0211312 0.003)
(0.0152414 -0.0196903 0.003)
(-0.0237581 -0.00745414 0.003)
(-0.022882 -0.00981946 0.003)
(-0.0171553 -0.0180473 0.003)
(-0.0152414 -0.0196903 0.003)
(0.0249 1.41072e-17 0)
(0.0247722 -0.00251909 0)
(-0.00223607 -0.00447214 0)
(0.00126116 -0.024868 0)
(-0.00126116 -0.024868 0)
(-0.00377055 -0.0246129 0)
(0.00447214 -0.00223607 0)
(0.00223607 0.00447214 0)
(-0.00447214 0.00223607 0)
(-0.00126116 0.024868 0)
(0.00126116 0.024868 0)
(0.00377055 0.0246129 0)
(-0.0249 0 0)
(-0.0247722 0.00251909 0)
(-0.0243903 0.00501233 0)
(-0.0131712 -0.0211312 0)
(-0.0152414 -0.0196903 0)
(-0.020437 -0.0142246 0)
(-0.0217712 -0.012084 0)
(-5.23722e-17 -0.005 0)
(0.005 -3.49148e-17 0)
(-0.0086479 0.02335 0)
(-0.00624125 0.0241051 0)
(-0.00624125 -0.0241051 0)
(-0.0086479 -0.02335 0)
(-0.005 0 0)
(-0.0109658 -0.0223553 0)
(-0.022882 -0.00981946 0)
(-0.0237581 -0.00745414 0)
(-0.0243903 -0.00501233 0)
(-0.0247722 -0.00251909 0)
(-0.0237581 0.00745414 0)
(-0.022882 0.00981946 0)
(1.74574e-17 0.005 0)
(-0.0217712 0.012084 0)
(-0.020437 0.0142246 0)
(-0.00377055 0.0246129 0)
(-0.0171553 -0.0180473 0)
(-0.0188931 -0.0162192 0)
(0.0243903 -0.00501233 0)
(0.0237581 -0.00745414 0)
(0.022882 -0.00981946 0)
(0.0217712 -0.012084 0)
(0.020437 -0.0142246 0)
(0.0188931 -0.0162192 0)
(0.0171553 -0.0180473 0)
(0.0152414 -0.0196903 0)
(0.00624125 0.0241051 0)
(0.0086479 0.02335 0)
(0.0109658 0.0223553 0)
(0.0131712 0.0211312 0)
(0.022882 0.00981946 0)
(0.0237581 0.00745414 0)
(-0.0188931 0.0162192 0)
(-0.0171553 0.0180473 0)
(-0.0152414 0.0196903 0)
(0.0243903 0.00501233 0)
(0.0247722 0.00251909 0)
(-0.0131712 0.0211312 0)
(-0.0109658 0.0223553 0)
(0.0131712 -0.0211312 0)
(0.0109658 -0.0223553 0)
(0.0086479 -0.02335 0)
(0.00624125 -0.0241051 0)
(0.00377055 -0.0246129 0)
(0.0152414 0.0196903 0)
(0.0171553 0.0180473 0)
(0.0188931 0.0162192 0)
(0.020437 0.0142246 0)
(0.0217712 0.012084 0)
)


// edges:

164
(
(0 8)
(16 0)
(17 18)
(19 20)
(21 22)
(23 24)
(25 26)
(1 9)
(26 1)
(2 10)
(20 2)
(27 28)
(29 27)
(30 31)
(32 33)
(33 34)
(9 19)
(34 35)
(35 17)
(36 37)
(38 39)
(22 3)
(3 11)
(40 16)
(37 41)
(41 42)
(42 43)
(43 30)
(18 44)
(44 45)
(45 46)
(46 47)
(31 48)
(48 49)
(49 50)
(28 51)
(51 52)
(52 53)
(39 54)
(54 55)
(10 21)
(55 56)
(56 36)
(50 57)
(57 58)
(58 32)
(47 59)
(59 60)
(60 61)
(61 62)
(62 63)
(63 64)
(64 65)
(65 66)
(8 25)
(66 67)
(67 23)
(53 68)
(68 69)
(69 70)
(24 71)
(71 72)
(72 73)
(73 74)
(75 76)
(76 77)
(78 29)
(11 40)
(79 78)
(70 80)
(80 81)
(81 38)
(74 82)
(82 83)
(83 75)
(77 84)
(84 85)
(85 79)
(86 87)
(4 88)
(13 4)
(89 90)
(90 91)
(12 5)
(5 92)
(14 6)
(6 93)
(15 7)
(7 94)
(95 96)
(96 97)
(98 99)
(99 100)
(101 102)
(103 104)
(88 105)
(92 106)
(107 108)
(91 109)
(109 110)
(111 13)
(110 112)
(112 101)
(104 113)
(113 114)
(114 115)
(94 111)
(116 98)
(115 116)
(100 117)
(117 118)
(119 15)
(118 120)
(120 121)
(93 119)
(122 95)
(108 122)
(102 123)
(123 124)
(124 103)
(87 125)
(125 126)
(126 127)
(105 12)
(127 128)
(128 129)
(129 130)
(130 131)
(131 132)
(97 133)
(133 134)
(106 14)
(134 135)
(135 136)
(137 138)
(121 139)
(139 140)
(140 141)
(138 142)
(142 143)
(143 86)
(141 144)
(144 145)
(145 107)
(132 146)
(146 147)
(147 148)
(148 149)
(149 150)
(150 89)
(136 151)
(151 152)
(152 153)
(153 154)
(154 155)
(155 137)
(4 3)
(2 5)
(1 6)
(0 7)
(10 12)
(9 14)
(8 15)
(11 13)
)

// * * * * * * * * * * * * * * * * * * * * * * * * * * * * * * * * * * * * * //


// ************************************************************************* //
