/*--------------------------------*- C++ -*----------------------------------*\
| =========                 |                                                 |
| \\      /  F ield         | OpenFOAM: The Open Source CFD Toolbox           |
|  \\    /   O peration     | Version:  v2106                                 |
|   \\  /    A nd           | Website:  www.openfoam.com                      |
|    \\/     M anipulation  |                                                 |
\*---------------------------------------------------------------------------*/
FoamFile
{
    version     2.0;
    format      ascii;
    arch        "LSB;label=32;scalar=64";
    class       extendedFeatureEdgeMesh;
    location    "constant/extendedFeatureEdgeMesh";
    object      VT5_nozzle_Itay.extendedFeatureEdgeMesh;
}
// * * * * * * * * * * * * * * * * * * * * * * * * * * * * * * * * * * * * * //

// points

156
(
(-0.003 0.004 0.003)
(0.004 0.003 0.003)
(0.003 -0.004 0.003)
(-0.004 -0.003 0.003)
(-0.004 -0.003 0)
(0.003 -0.004 0)
(0.004 0.003 0)
(-0.003 0.004 0)
(-0.0195215 0.004 0.003)
(0.004 0.0195215 0.003)
(0.0192896 -0.005 0.003)
(-0.005 -0.0192896 0.003)
(0.0192896 -0.005 0)
(-0.005 -0.0192896 0)
(0.004 0.0195215 0)
(-0.0195215 0.004 0)
(-0.00447214 0.00223607 0.003)
(0.00624125 0.0241051 0.003)
(0.00377055 0.0246129 0.003)
(0.005 -3.26944e-17 0.003)
(0.00447214 -0.00223607 0.003)
(-5.23722e-17 -0.005 0.003)
(-0.00223607 -0.00447214 0.003)
(-0.0237581 0.00745414 0.003)
(-0.0243903 0.00501233 0.003)
(1.74574e-17 0.005 0.003)
(0.00223607 0.00447214 0.003)
(-0.00624125 -0.0241051 0.003)
(-0.00377055 -0.0246129 0.003)
(-0.0086479 -0.02335 0.003)
(0.0243903 0.00501233 0.003)
(0.0237581 0.00745414 0.003)
(0.0152414 0.0196903 0.003)
(0.0131712 0.0211312 0.003)
(0.0109658 0.0223553 0.003)
(0.0086479 0.02335 0.003)
(0.0237581 -0.00745414 0.003)
(0.0243903 -0.00501233 0.003)
(0.0171553 -0.0180473 0.003)
(0.0188931 -0.0162192 0.003)
(-0.005 0 0.003)
(0.0247722 -0.00251909 0.003)
(0.0249 1.41072e-17 0.003)
(0.0247722 0.00251909 0.003)
(0.00126116 0.024868 0.003)
(-0.00126116 0.024868 0.003)
(-0.00377055 0.0246129 0.003)
(-0.00624125 0.0241051 0.003)
(0.022882 0.00981946 0.003)
(0.0217712 0.012084 0.003)
(0.020437 0.0142246 0.003)
(-0.00126116 -0.024868 0.003)
(0.00126116 -0.024868 0.003)
(0.00377055 -0.0246129 0.003)
(0.020437 -0.0142246 0.003)
(0.0217712 -0.012084 0.003)
(0.022882 -0.00981946 0.003)
(0.0188931 0.0162192 0.003)
(0.0171553 0.0180473 0.003)
(-0.0086479 0.02335 0.003)
(-0.0109658 0.0223553 0.003)
(-0.0131712 0.0211312 0.003)
(-0.0152414 0.0196903 0.003)
(-0.0171553 0.0180473 0.003)
(-0.0188931 0.0162192 0.003)
(-0.020437 0.0142246 0.003)
(-0.0217712 0.012084 0.003)
(-0.022882 0.00981946 0.003)
(0.00624125 -0.0241051 0.003)
(0.0086479 -0.02335 0.003)
(0.0109658 -0.0223553 0.003)
(-0.0247722 0.00251909 0.003)
(-0.0249 0 0.003)
(-0.0247722 -0.00251909 0.003)
(-0.0243903 -0.00501233 0.003)
(-0.0217712 -0.012084 0.003)
(-0.020437 -0.0142246 0.003)
(-0.0188931 -0.0162192 0.003)
(-0.0109658 -0.0223553 0.003)
(-0.0131712 -0.0211312 0.003)
(0.0131712 -0.0211312 0.003)
(0.0152414 -0.0196903 0.003)
(-0.0237581 -0.00745414 0.003)
(-0.022882 -0.00981946 0.003)
(-0.0171553 -0.0180473 0.003)
(-0.0152414 -0.0196903 0.003)
(0.0249 1.41072e-17 0)
(0.0247722 -0.00251909 0)
(-0.00223607 -0.00447214 0)
(0.00126116 -0.024868 0)
(-0.00126116 -0.024868 0)
(-0.00377055 -0.0246129 0)
(0.00447214 -0.00223607 0)
(0.00223607 0.00447214 0)
(-0.00447214 0.00223607 0)
(-0.00126116 0.024868 0)
(0.00126116 0.024868 0)
(0.00377055 0.0246129 0)
(-0.0249 0 0)
(-0.0247722 0.00251909 0)
(-0.0243903 0.00501233 0)
(-0.0131712 -0.0211312 0)
(-0.0152414 -0.0196903 0)
(-0.020437 -0.0142246 0)
(-0.0217712 -0.012084 0)
(-5.23722e-17 -0.005 0)
(0.005 -3.49148e-17 0)
(-0.0086479 0.02335 0)
(-0.00624125 0.0241051 0)
(-0.00624125 -0.0241051 0)
(-0.0086479 -0.02335 0)
(-0.005 0 0)
(-0.0109658 -0.0223553 0)
(-0.022882 -0.00981946 0)
(-0.0237581 -0.00745414 0)
(-0.0243903 -0.00501233 0)
(-0.0247722 -0.00251909 0)
(-0.0237581 0.00745414 0)
(-0.022882 0.00981946 0)
(1.74574e-17 0.005 0)
(-0.0217712 0.012084 0)
(-0.020437 0.0142246 0)
(-0.00377055 0.0246129 0)
(-0.0171553 -0.0180473 0)
(-0.0188931 -0.0162192 0)
(0.0243903 -0.00501233 0)
(0.0237581 -0.00745414 0)
(0.022882 -0.00981946 0)
(0.0217712 -0.012084 0)
(0.020437 -0.0142246 0)
(0.0188931 -0.0162192 0)
(0.0171553 -0.0180473 0)
(0.0152414 -0.0196903 0)
(0.00624125 0.0241051 0)
(0.0086479 0.02335 0)
(0.0109658 0.0223553 0)
(0.0131712 0.0211312 0)
(0.022882 0.00981946 0)
(0.0237581 0.00745414 0)
(-0.0188931 0.0162192 0)
(-0.0171553 0.0180473 0)
(-0.0152414 0.0196903 0)
(0.0243903 0.00501233 0)
(0.0247722 0.00251909 0)
(-0.0131712 0.0211312 0)
(-0.0109658 0.0223553 0)
(0.0131712 -0.0211312 0)
(0.0109658 -0.0223553 0)
(0.0086479 -0.02335 0)
(0.00624125 -0.0241051 0)
(0.00377055 -0.0246129 0)
(0.0152414 0.0196903 0)
(0.0171553 0.0180473 0)
(0.0188931 0.0162192 0)
(0.020437 0.0142246 0)
(0.0217712 0.012084 0)
)

// edges

164
(
(0 8)
(16 0)
(17 18)
(19 20)
(21 22)
(23 24)
(25 26)
(1 9)
(26 1)
(2 10)
(20 2)
(27 28)
(29 27)
(30 31)
(32 33)
(33 34)
(9 19)
(34 35)
(35 17)
(36 37)
(38 39)
(22 3)
(3 11)
(40 16)
(37 41)
(41 42)
(42 43)
(43 30)
(18 44)
(44 45)
(45 46)
(46 47)
(31 48)
(48 49)
(49 50)
(28 51)
(51 52)
(52 53)
(39 54)
(54 55)
(10 21)
(55 56)
(56 36)
(50 57)
(57 58)
(58 32)
(47 59)
(59 60)
(60 61)
(61 62)
(62 63)
(63 64)
(64 65)
(65 66)
(8 25)
(66 67)
(67 23)
(53 68)
(68 69)
(69 70)
(24 71)
(71 72)
(72 73)
(73 74)
(75 76)
(76 77)
(78 29)
(11 40)
(79 78)
(70 80)
(80 81)
(81 38)
(74 82)
(82 83)
(83 75)
(77 84)
(84 85)
(85 79)
(86 87)
(4 88)
(13 4)
(89 90)
(90 91)
(12 5)
(5 92)
(14 6)
(6 93)
(15 7)
(7 94)
(95 96)
(96 97)
(98 99)
(99 100)
(101 102)
(103 104)
(88 105)
(92 106)
(107 108)
(91 109)
(109 110)
(111 13)
(110 112)
(112 101)
(104 113)
(113 114)
(114 115)
(94 111)
(116 98)
(115 116)
(100 117)
(117 118)
(119 15)
(118 120)
(120 121)
(93 119)
(122 95)
(108 122)
(102 123)
(123 124)
(124 103)
(87 125)
(125 126)
(126 127)
(105 12)
(127 128)
(128 129)
(129 130)
(130 131)
(131 132)
(97 133)
(133 134)
(106 14)
(134 135)
(135 136)
(137 138)
(121 139)
(139 140)
(140 141)
(138 142)
(142 143)
(143 86)
(141 144)
(144 145)
(145 107)
(132 146)
(146 147)
(147 148)
(148 149)
(149 150)
(150 89)
(136 151)
(151 152)
(152 153)
(153 154)
(154 155)
(155 137)
(4 3)
(2 5)
(1 6)
(0 7)
(10 12)
(9 14)
(8 15)
(11 13)
)

// concaveStart mixedStart nonFeatureStart
8 8 16
// internalStart flatStart openStart multipleStart
160 164 164 164
// normals

304
(
(0 -0 1)
(-0 1 0)
(0.767752 -0.640747 0)
(0 0 1)
(0.201298 0.97953 -0)
(0 0 1)
(-0.973249 0.229753 -1.70051e-16)
(0 0 1)
(0.229753 0.973249 0)
(0 0 1)
(-0.968077 0.250653 0)
(0 0 1)
(-0.229753 -0.973249 -0)
(0 0 1)
(1 0 0)
(-0.640747 -0.767752 -0)
(0 0 1)
(-0.0612735 -0.998121 -0)
(-0.767752 0.640747 0)
(0 0 1)
(-0.201298 -0.97953 0)
(0 -0 1)
(-0.299363 -0.954139 0)
(0 0 1)
(0.968077 0.250653 -0)
(0 0 1)
(0.571266 0.820765 -0)
(0 0 1)
(0.485301 0.874347 -0)
(0 -0 1)
(-0.998691 -0.0511585 3.78648e-17)
(0 0 1)
(0.394358 0.918957 -0)
(0 0 1)
(0.299363 0.954139 -0)
(0 0 1)
(0.968077 -0.250653 0)
(0 -0 1)
(0.724792 -0.688968 0)
(0 0 1)
(0.640747 0.767752 0)
(-0.998121 0.0612735 0)
(0 -0 1)
(0.973249 -0.229753 0)
(0 -0 1)
(0.988468 -0.151427 0)
(0 0 1)
(0.998717 -0.0506482 0)
(0 0 1)
(0.998717 0.0506482 -0)
(0 0 1)
(0.988468 0.151427 -0)
(0 0 1)
(0.101168 0.994869 -0)
(0 0 1)
(0 1 0)
(0 0 1)
(-0.101168 0.994869 0)
(0 0 1)
(-0.201298 0.97953 0)
(0 0 1)
(0.937752 0.347306 -0)
(0 0 1)
(0.897804 0.440394 -0)
(0 0 1)
(0.848644 0.528964 -0)
(-0 -0 1)
(-0.101168 -0.994869 0)
(0 0 1)
(0 -1 0)
(0 0 1)
(0.101168 -0.994869 0)
(0 -0 1)
(0.790777 -0.612105 0)
(0 0 1)
(0.848644 -0.528964 0)
(-0 0 1)
(-0 1 0)
(0 0 1)
(0.897804 -0.440394 0)
(0 0 1)
(0.937752 -0.347306 0)
(0 0 1)
(0.790777 0.612105 -0)
(0 0 1)
(0.724792 0.688968 -0)
(0 0 1)
(0.651373 0.758758 -0)
(0 0 1)
(-0.299363 0.954139 0)
(0 0 1)
(-0.394358 0.918957 0)
(0 0 1)
(-0.485301 0.874347 0)
(0 0 1)
(-0.571266 0.820765 0)
(0 0 1)
(-0.651373 0.758758 0)
(0 0 1)
(-0.724792 0.688968 0)
(0 0 1)
(-0.790777 0.612105 0)
(0 0 1)
(-0.848644 0.528964 0)
(0 0 1)
(0.0511585 -0.998691 0)
(0 0 1)
(-0.897804 0.440394 0)
(0 0 1)
(-0.937752 0.347306 0)
(0 -0 1)
(0.201298 -0.97953 0)
(0 0 1)
(0.299363 -0.954139 0)
(0 0 1)
(0.394358 -0.918957 0)
(0 0 1)
(-0.988468 0.151427 0)
(0 0 1)
(-0.998717 0.0506482 0)
(0 0 1)
(-0.998717 -0.0506482 0)
(0 0 1)
(-0.988468 -0.151427 0)
(-0 0 1)
(-0.848644 -0.528964 0)
(0 0 1)
(-0.790777 -0.612105 0)
(0 -0 1)
(-0.394358 -0.918957 0)
(0 0 1)
(1 0 0)
(0 -0 1)
(-0.485301 -0.874347 0)
(0 -0 1)
(0.485301 -0.874347 0)
(0 0 1)
(0.571266 -0.820765 0)
(0 0 1)
(0.651373 -0.758758 0)
(-0 0 1)
(-0.968077 -0.250653 0)
(0 0 1)
(-0.937752 -0.347306 0)
(0 0 1)
(-0.897804 -0.440394 0)
(-0 0 1)
(-0.724792 -0.688968 0)
(0 0 1)
(-0.651373 -0.758758 0)
(0 0 1)
(-0.571266 -0.820765 0)
(0 0 -1)
(0.998717 -0.0506482 0)
(0 0 -1)
(0.640747 0.767752 0)
(-0.998121 0.0612735 0)
(0 0 -1)
(0 -1 0)
(0 0 -1)
(-0.101168 -0.994869 0)
(0 0 -1)
(-0.0612735 -0.998121 0)
(-0.767752 0.640747 0)
(0 0 -1)
(1 0 0)
(-0.640747 -0.767752 -0)
(-0 0 -1)
(0 1 0)
(0.767752 -0.640747 0)
(0 0 -1)
(0 1 0)
(0 0 -1)
(0.101168 0.994869 0)
(0 0 -1)
(-0.998717 0.0506482 0)
(-0 0 -1)
(-0.988468 0.151427 0)
(0 0 -1)
(-0.571266 -0.820765 0)
(0 0 -1)
(-0.848644 -0.528964 0)
(0 0 -1)
(0.229753 0.973249 0)
(0 0 -1)
(-0.973249 0.229753 0)
(0 0 -1)
(-0.299363 0.954139 0)
(0 0 -1)
(-0.201298 -0.97953 0)
(0 0 -1)
(-0.299363 -0.954139 0)
(-0 0 -1)
(1 0 0)
(0 0 -1)
(-0.394358 -0.918957 0)
(0 0 -1)
(-0.485301 -0.874347 0)
(0 0 -1)
(-0.897804 -0.440394 0)
(0 0 -1)
(-0.937752 -0.347306 0)
(0 0 -1)
(-0.968077 -0.250653 0)
(-0 0 -1)
(0.973249 -0.229753 0)
(0 0 -1)
(-0.998717 -0.0506482 0)
(0 0 -1)
(-0.988468 -0.151427 0)
(0 0 -1)
(-0.968077 0.250653 0)
(0 0 -1)
(-0.937752 0.347306 0)
(0 0 -1)
(0.0511585 -0.998691 0)
(0 0 -1)
(-0.897804 0.440394 0)
(0 0 -1)
(-0.848644 0.528964 0)
(0 0 -1)
(-0.229753 -0.973249 -0)
(0 -0 -1)
(-0.101168 0.994869 0)
(0 -0 -1)
(-0.201298 0.97953 0)
(0 0 -1)
(-0.651373 -0.758758 0)
(0 0 -1)
(-0.724792 -0.688968 0)
(0 0 -1)
(-0.790777 -0.612105 0)
(0 0 -1)
(0.988468 -0.151427 0)
(0 0 -1)
(0.968077 -0.250653 0)
(0 0 -1)
(0.937752 -0.347306 0)
(-0 -0 -1)
(0 1 0)
(0 0 -1)
(0.897804 -0.440394 0)
(0 0 -1)
(0.848644 -0.528964 0)
(-0 0 -1)
(0.790777 -0.612105 0)
(0 0 -1)
(0.724792 -0.688968 0)
(0 0 -1)
(0.651373 -0.758758 0)
(0 0 -1)
(0.201298 0.97953 0)
(0 0 -1)
(0.299363 0.954139 0)
(0 0 -1)
(-0.998691 -0.0511585 0)
(0 0 -1)
(0.394358 0.918957 0)
(0 0 -1)
(0.485301 0.874347 0)
(0 -0 -1)
(0.937752 0.347306 0)
(0 0 -1)
(-0.790777 0.612105 0)
(0 0 -1)
(-0.724792 0.688968 0)
(0 0 -1)
(-0.651373 0.758758 0)
(0 -0 -1)
(0.968077 0.250653 0)
(0 0 -1)
(0.988468 0.151427 0)
(0 0 -1)
(0.998717 0.0506482 0)
(0 0 -1)
(-0.571266 0.820765 0)
(0 0 -1)
(-0.485301 0.874347 0)
(0 0 -1)
(-0.394358 0.918957 0)
(-0 0 -1)
(0.571266 -0.820765 0)
(0 0 -1)
(0.485301 -0.874347 0)
(0 0 -1)
(0.394358 -0.918957 0)
(-0 0 -1)
(0.299363 -0.954139 0)
(0 0 -1)
(0.201298 -0.97953 0)
(0 0 -1)
(0.101168 -0.994869 0)
(0 -0 -1)
(0.571266 0.820765 0)
(0 0 -1)
(0.651373 0.758758 0)
(0 0 -1)
(0.724792 0.688968 0)
(0 -0 -1)
(0.790777 0.612105 0)
(0 0 -1)
(0.848644 0.528964 0)
(0 0 -1)
(0.897804 0.440394 0)
)

// normal volume types

304
(
0
0
0
0
0
0
0
0
0
0
0
0
0
0
0
0
0
0
0
0
0
0
0
0
0
0
0
0
0
0
0
0
0
0
0
0
0
0
0
0
0
0
0
0
0
0
0
0
0
0
0
0
0
0
0
0
0
0
0
0
0
0
0
0
0
0
0
0
0
0
0
0
0
0
0
0
0
0
0
0
0
0
0
0
0
0
0
0
0
0
0
0
0
0
0
0
0
0
0
0
0
0
0
0
0
0
0
0
0
0
0
0
0
0
0
0
0
0
0
0
0
0
0
0
0
0
0
0
0
0
0
0
0
0
0
0
0
0
0
0
0
0
0
0
0
0
0
0
0
0
0
0
0
0
0
0
0
0
0
0
0
0
0
0
0
0
0
0
0
0
0
0
0
0
0
0
0
0
0
0
0
0
0
0
0
0
0
0
0
0
0
0
0
0
0
0
0
0
0
0
0
0
0
0
0
0
0
0
0
0
0
0
0
0
0
0
0
0
0
0
0
0
0
0
0
0
0
0
0
0
0
0
0
0
0
0
0
0
0
0
0
0
0
0
0
0
0
0
0
0
0
0
0
0
0
0
0
0
0
0
0
0
0
0
0
0
0
0
0
0
0
0
0
0
0
0
0
0
0
0
0
0
0
0
0
0
0
0
0
0
0
0
0
0
0
0
0
0
0
0
0
0
0
0
)

// normalDirections

164
(
2(1 -1)
2(1 -1)
2(1 -1)
2(1 -1)
2(1 -1)
2(1 -1)
2(1 -1)
2(1 -1)
2(1 -1)
2(1 -1)
2(1 -1)
2(1 -1)
2(1 -1)
2(1 -1)
2(1 -1)
2(1 -1)
2(1 -1)
2(1 -1)
2(1 -1)
2(1 -1)
2(1 -1)
2(1 -1)
2(1 -1)
2(1 -1)
2(1 -1)
2(1 -1)
2(1 -1)
2(1 -1)
2(1 -1)
2(1 -1)
2(1 -1)
2(1 -1)
2(1 -1)
2(1 -1)
2(1 -1)
2(1 -1)
2(1 -1)
2(1 -1)
2(1 -1)
2(1 -1)
2(1 -1)
2(1 -1)
2(1 -1)
2(1 -1)
2(1 -1)
2(1 -1)
2(1 -1)
2(1 -1)
2(1 -1)
2(1 -1)
2(1 -1)
2(1 -1)
2(1 -1)
2(1 -1)
2(1 -1)
2(1 -1)
2(1 -1)
2(1 -1)
2(1 -1)
2(1 -1)
2(1 -1)
2(1 -1)
2(1 -1)
2(1 -1)
2(1 -1)
2(1 -1)
2(1 -1)
2(1 -1)
2(1 -1)
2(1 -1)
2(1 -1)
2(1 -1)
2(1 -1)
2(1 -1)
2(1 -1)
2(1 -1)
2(1 -1)
2(1 -1)
2(1 -1)
2(1 -1)
2(1 -1)
2(1 -1)
2(1 -1)
2(1 -1)
2(1 -1)
2(1 -1)
2(1 -1)
2(1 -1)
2(1 -1)
2(1 -1)
2(1 -1)
2(1 -1)
2(1 -1)
2(1 -1)
2(1 -1)
2(1 -1)
2(1 -1)
2(1 -1)
2(1 -1)
2(1 -1)
2(1 -1)
2(1 -1)
2(1 -1)
2(1 -1)
2(1 -1)
2(1 -1)
2(1 -1)
2(1 -1)
2(1 -1)
2(1 -1)
2(1 -1)
2(1 -1)
2(1 -1)
2(1 -1)
2(1 -1)
2(1 -1)
2(1 -1)
2(1 -1)
2(1 -1)
2(1 -1)
2(1 -1)
2(1 -1)
2(1 -1)
2(1 -1)
2(1 -1)
2(1 -1)
2(1 -1)
2(1 -1)
2(1 -1)
2(1 -1)
2(1 -1)
2(1 -1)
2(1 -1)
2(1 -1)
2(1 -1)
2(1 -1)
2(1 -1)
2(1 -1)
2(1 -1)
2(1 -1)
2(1 -1)
2(1 -1)
2(1 -1)
2(1 -1)
2(1 -1)
2(1 -1)
2(1 -1)
2(1 -1)
2(1 -1)
2(1 -1)
2(1 -1)
2(1 -1)
2(1 -1)
2(1 -1)
2(1 -1)
2(1 -1)
2(1 -1)
2(1 -1)
2(1 -1)
2(1 -1)
2(1 -1)
2(1 -1)
2(1 -1)
2(1 -1)
)

// edgeNormals

164
(
2(0 1)
2(0 2)
2(3 4)
2(5 6)
2(7 8)
2(9 10)
2(11 12)
2(13 14)
2(13 15)
2(16 17)
2(16 18)
2(19 20)
2(21 22)
2(23 24)
2(25 26)
2(27 28)
2(29 30)
2(31 32)
2(33 34)
2(35 36)
2(37 38)
2(39 40)
2(39 41)
2(42 43)
2(44 45)
2(46 47)
2(48 49)
2(50 51)
2(52 53)
2(54 55)
2(56 57)
2(58 59)
2(60 61)
2(62 63)
2(64 65)
2(66 67)
2(68 69)
2(70 71)
2(72 73)
2(74 75)
2(76 77)
2(78 79)
2(80 81)
2(82 83)
2(84 85)
2(86 87)
2(88 89)
2(90 91)
2(92 93)
2(94 95)
2(96 97)
2(98 99)
2(100 101)
2(102 103)
2(104 105)
2(106 107)
2(108 109)
2(110 111)
2(112 113)
2(114 115)
2(116 117)
2(118 119)
2(120 121)
2(122 123)
2(124 125)
2(126 127)
2(128 129)
2(130 131)
2(132 133)
2(134 135)
2(136 137)
2(138 139)
2(140 141)
2(142 143)
2(144 145)
2(146 147)
2(148 149)
2(150 151)
2(152 153)
2(154 155)
2(154 156)
2(157 158)
2(159 160)
2(161 162)
2(161 163)
2(164 165)
2(164 166)
2(167 168)
2(167 169)
2(170 171)
2(172 173)
2(174 175)
2(176 177)
2(178 179)
2(180 181)
2(182 183)
2(184 185)
2(186 187)
2(188 189)
2(190 191)
2(192 193)
2(194 195)
2(196 197)
2(198 199)
2(200 201)
2(202 203)
2(204 205)
2(206 207)
2(208 209)
2(210 211)
2(212 213)
2(214 215)
2(216 217)
2(218 219)
2(220 221)
2(222 223)
2(224 225)
2(226 227)
2(228 229)
2(230 231)
2(232 233)
2(234 235)
2(236 237)
2(238 239)
2(240 241)
2(242 243)
2(244 245)
2(246 247)
2(248 249)
2(250 251)
2(252 253)
2(254 255)
2(256 257)
2(258 259)
2(260 261)
2(262 263)
2(264 265)
2(266 267)
2(268 269)
2(270 271)
2(272 273)
2(274 275)
2(276 277)
2(278 279)
2(280 281)
2(282 283)
2(284 285)
2(286 287)
2(288 289)
2(290 291)
2(292 293)
2(294 295)
2(296 297)
2(298 299)
2(300 301)
2(302 303)
2(155 156)
2(162 163)
2(165 166)
2(168 169)
2(239 17)
2(255 14)
2(215 1)
2(193 41)
)

// featurePointNormals

16
(
3(0 1 2)
3(13 14 15)
3(16 17 18)
3(39 40 41)
3(154 155 156)
3(161 162 163)
3(164 165 166)
3(167 168 169)
3(0 1 105)
3(13 14 30)
3(16 17 77)
3(39 41 131)
3(161 162 239)
3(154 156 193)
3(164 165 255)
3(167 168 215)
)

// featurePointEdges

16
(
3(0 159 1)
3(7 158 8)
3(9 157 10)
3(21 156 22)
3(79 156 80)
3(83 157 84)
3(85 158 86)
3(87 159 88)
3(54 162 0)
3(16 161 7)
3(9 160 40)
3(22 163 67)
3(83 160 123)
3(100 163 80)
3(131 161 85)
3(111 162 87)
)

// regionEdges
0()


// ************************************************************************* //
