/*--------------------------------*- C++ -*----------------------------------*\
| =========                 |                                                 |
| \\      /  F ield         | OpenFOAM: The Open Source CFD Toolbox           |
|  \\    /   O peration     | Version:  v2106                                 |
|   \\  /    A nd           | Website:  www.openfoam.com                      |
|    \\/     M anipulation  |                                                 |
\*---------------------------------------------------------------------------*/
FoamFile
{
    version     2.0;
    format      ascii;
    arch        "LSB;label=32;scalar=64";
    class       polyBoundaryMesh;
    location    "constant/polyMesh";
    object      boundary;
}
// * * * * * * * * * * * * * * * * * * * * * * * * * * * * * * * * * * * * * //

7
(
    INLET
    {
        type            patch;
        nFaces          0;
        startFace       53252;
    }
    COLD
    {
        type            patch;
        nFaces          0;
        startFace       53252;
    }
    HOT
    {
        type            patch;
        nFaces          0;
        startFace       53252;
    }
    WALL
    {
        type            wall;
        inGroups        1(wall);
        nFaces          1033;
        startFace       53252;
    }
    nozzle
    {
        type            wall;
        inGroups        1(wall);
        nFaces          0;
        startFace       54285;
    }
    procBoundary2to1
    {
        type            processor;
        inGroups        1(processor);
        nFaces          1013;
        startFace       54285;
        matchTolerance  0.0001;
        transform       unknown;
        myProcNo        2;
        neighbProcNo    1;
    }
    procBoundary2to3
    {
        type            processor;
        inGroups        1(processor);
        nFaces          1040;
        startFace       55298;
        matchTolerance  0.0001;
        transform       unknown;
        myProcNo        2;
        neighbProcNo    3;
    }
)

// ************************************************************************* //
