/*--------------------------------*- C++ -*----------------------------------*\
| =========                 |                                                 |
| \\      /  F ield         | OpenFOAM: The Open Source CFD Toolbox           |
|  \\    /   O peration     | Version:  v2106                                 |
|   \\  /    A nd           | Website:  www.openfoam.com                      |
|    \\/     M anipulation  |                                                 |
\*---------------------------------------------------------------------------*/
FoamFile
{
    version     2.0;
    format      ascii;
    arch        "LSB;label=32;scalar=64";
    class       polyBoundaryMesh;
    location    "constant/polyMesh";
    object      boundary;
}
// * * * * * * * * * * * * * * * * * * * * * * * * * * * * * * * * * * * * * //

7
(
    INLET
    {
        type            patch;
        nFaces          0;
        startFace       53237;
    }
    COLD
    {
        type            patch;
        nFaces          0;
        startFace       53237;
    }
    HOT
    {
        type            patch;
        nFaces          0;
        startFace       53237;
    }
    WALL
    {
        type            wall;
        inGroups        1(wall);
        nFaces          1043;
        startFace       53237;
    }
    nozzle
    {
        type            wall;
        inGroups        1(wall);
        nFaces          0;
        startFace       54280;
    }
    procBoundary1to0
    {
        type            processor;
        inGroups        1(processor);
        nFaces          1024;
        startFace       54280;
        matchTolerance  0.0001;
        transform       unknown;
        myProcNo        1;
        neighbProcNo    0;
    }
    procBoundary1to2
    {
        type            processor;
        inGroups        1(processor);
        nFaces          1013;
        startFace       55304;
        matchTolerance  0.0001;
        transform       unknown;
        myProcNo        1;
        neighbProcNo    2;
    }
)

// ************************************************************************* //
