/*--------------------------------*- C++ -*----------------------------------*\
| =========                 |                                                 |
| \\      /  F ield         | OpenFOAM: The Open Source CFD Toolbox           |
|  \\    /   O peration     | Version:  v2106                                 |
|   \\  /    A nd           | Website:  www.openfoam.com                      |
|    \\/     M anipulation  |                                                 |
\*---------------------------------------------------------------------------*/
FoamFile
{
    version     2.0;
    format      ascii;
    arch        "LSB;label=32;scalar=64";
    class       polyBoundaryMesh;
    location    "constant/polyMesh";
    object      boundary;
}
// * * * * * * * * * * * * * * * * * * * * * * * * * * * * * * * * * * * * * //

6
(
    INLET
    {
        type            patch;
        nFaces          0;
        startFace       52267;
    }
    COLD
    {
        type            patch;
        nFaces          0;
        startFace       52267;
    }
    HOT
    {
        type            patch;
        nFaces          448;
        startFace       52267;
    }
    WALL
    {
        type            wall;
        inGroups        1(wall);
        nFaces          1556;
        startFace       52715;
    }
    nozzle
    {
        type            wall;
        inGroups        1(wall);
        nFaces          0;
        startFace       54271;
    }
    procBoundary0to1
    {
        type            processor;
        inGroups        1(processor);
        nFaces          1024;
        startFace       54271;
        matchTolerance  0.0001;
        transform       unknown;
        myProcNo        0;
        neighbProcNo    1;
    }
)

// ************************************************************************* //
