/*--------------------------------*- C++ -*----------------------------------*\
| =========                 |                                                 |
| \\      /  F ield         | OpenFOAM: The Open Source CFD Toolbox           |
|  \\    /   O peration     | Version:  v2106                                 |
|   \\  /    A nd           | Website:  www.openfoam.com                      |
|    \\/     M anipulation  |                                                 |
\*---------------------------------------------------------------------------*/
FoamFile
{
    version     2.0;
    format      ascii;
    arch        "LSB;label=32;scalar=64";
    class       polyBoundaryMesh;
    location    "constant/polyMesh";
    object      boundary;
}
// * * * * * * * * * * * * * * * * * * * * * * * * * * * * * * * * * * * * * //

7
(
    INLET
    {
        type            patch;
        nFaces          0;
        startFace       52675;
    }
    COLD
    {
        type            patch;
        nFaces          0;
        startFace       52675;
    }
    HOT
    {
        type            patch;
        nFaces          0;
        startFace       52675;
    }
    WALL
    {
        type            wall;
        inGroups        1(wall);
        nFaces          1044;
        startFace       52675;
    }
    nozzle
    {
        type            wall;
        inGroups        1(wall);
        nFaces          0;
        startFace       53719;
    }
    procBoundary3to2
    {
        type            processor;
        inGroups        1(processor);
        nFaces          1040;
        startFace       53719;
        matchTolerance  0.0001;
        transform       unknown;
        myProcNo        3;
        neighbProcNo    2;
    }
    procBoundary3to4
    {
        type            processor;
        inGroups        1(processor);
        nFaces          980;
        startFace       54759;
        matchTolerance  0.0001;
        transform       unknown;
        myProcNo        3;
        neighbProcNo    4;
    }
)

// ************************************************************************* //
