/*--------------------------------*- C++ -*----------------------------------*\
| =========                 |                                                 |
| \\      /  F ield         | OpenFOAM: The Open Source CFD Toolbox           |
|  \\    /   O peration     | Version:  v2106                                 |
|   \\  /    A nd           | Website:  www.openfoam.com                      |
|    \\/     M anipulation  |                                                 |
\*---------------------------------------------------------------------------*/
FoamFile
{
    version     2.0;
    format      ascii;
    class       dictionary;
    object      blockMeshDict;
}
// * * * * * * * * * * * * * * * * * * * * * * * * * * * * * * * * * * * * * //

scale   1.0;


// Dimensions
Dcold     0.0098;
Lcold     0.005;
Rcold     #calc"0.5 * $Dcold";
RcoldSq   #calc"0.4 * $Rcold";

Dtube     0.0168;
Rtube     #calc"0.5 * $Dtube";

Snozzle   0.001;
Dnozzle   0.03;
Rnozzle   #calc"0.5 * $Dnozzle";


// Grid params
RadColdElem   9;
SqElem        10;
LcoldElem     11;
LnozzleElem   5;
RadTubeElem   12;
RadNozElem    20;


vertices
(

// Cold tube blocks
    ( #calc"$RcoldSq*cos(M_PI/4.0)"    #calc"-$RcoldSq*cos(M_PI/4.0)"   #calc"-$Lcold" ) // 0
    ( #calc"$Rcold*cos(M_PI/4.0)"      #calc"-$Rcold*cos(M_PI/4.0)"     #calc"-$Lcold" ) // 1
    ( #calc"$Rcold*cos(M_PI/4.0)"      #calc" $Rcold*cos(M_PI/4.0)"     #calc"-$Lcold" ) // 2
    ( #calc"$RcoldSq*cos(M_PI/4.0)"    #calc" $RcoldSq*cos(M_PI/4.0)"   #calc"-$Lcold" ) // 3

    ( #calc"$RcoldSq*cos(M_PI/4.0)"    #calc"-$RcoldSq*cos(M_PI/4.0)"   0.0 ) // 4
    ( #calc"$Rcold*cos(M_PI/4.0)"      #calc"-$Rcold*cos(M_PI/4.0)"     0.0 ) // 5
    ( #calc"$Rcold*cos(M_PI/4.0)"      #calc" $Rcold*cos(M_PI/4.0)"     0.0 ) // 6
    ( #calc"$RcoldSq*cos(M_PI/4.0)"    #calc" $RcoldSq*cos(M_PI/4.0)"   0.0 ) // 7

    ( #calc"-$Rcold*cos(M_PI/4.0)"     #calc"$Rcold*cos(M_PI/4.0)"      #calc"-$Lcold" ) // 8
    ( #calc"-$RcoldSq*cos(M_PI/4.0)"   #calc"$RcoldSq*cos(M_PI/4.0)"    #calc"-$Lcold" ) // 9
    ( #calc"-$Rcold*cos(M_PI/4.0)"     #calc"$Rcold*cos(M_PI/4.0)"      0.0            ) // 10
    ( #calc"-$RcoldSq*cos(M_PI/4.0)"   #calc"$RcoldSq*cos(M_PI/4.0)"    0.0            ) // 11

    ( #calc"-$Rcold*cos(M_PI/4.0)"     #calc"-$Rcold*cos(M_PI/4.0)"     #calc"-$Lcold" ) // 12
    ( #calc"-$RcoldSq*cos(M_PI/4.0)"   #calc"-$RcoldSq*cos(M_PI/4.0)"   #calc"-$Lcold" ) // 13
    ( #calc"-$Rcold*cos(M_PI/4.0)"     #calc"-$Rcold*cos(M_PI/4.0)"     0.0            ) // 14
    ( #calc"-$RcoldSq*cos(M_PI/4.0)"   #calc"-$RcoldSq*cos(M_PI/4.0)"   0.0            ) // 15

// Nozzle section blocks
    ( #calc"$RcoldSq*cos(M_PI/4.0)"    #calc"-$RcoldSq*cos(M_PI/4.0)"   0.0 ) // 16
    ( #calc"$Rcold*cos(M_PI/4.0)"      #calc"-$Rcold*cos(M_PI/4.0)"     0.0 ) // 17
    ( #calc"$Rcold*cos(M_PI/4.0)"      #calc" $Rcold*cos(M_PI/4.0)"     0.0 ) // 17
    ( #calc"$RcoldSq*cos(M_PI/4.0)"    #calc" $RcoldSq*cos(M_PI/4.0)"   0.0 ) // 19

    ( #calc"$RcoldSq*cos(M_PI/4.0)"    #calc"-$RcoldSq*cos(M_PI/4.0)"   $Snozzle ) // 20
    ( #calc"$Rcold*cos(M_PI/4.0)"      #calc"-$Rcold*cos(M_PI/4.0)"     $Snozzle ) // 21
    ( #calc"$Rcold*cos(M_PI/4.0)"      #calc" $Rcold*cos(M_PI/4.0)"     $Snozzle ) // 22
    ( #calc"$RcoldSq*cos(M_PI/4.0)"    #calc" $RcoldSq*cos(M_PI/4.0)"   $Snozzle ) // 23

    ( #calc"$Rtube*cos(M_PI/4.0)"      #calc"-$Rtube*cos(M_PI/4.0)"     0.0      ) // 24
    ( #calc"$Rtube*cos(M_PI/4.0)"      #calc" $Rtube*cos(M_PI/4.0)"     0.0      ) // 25
    ( #calc"$Rtube*cos(M_PI/4.0)"      #calc"-$Rtube*cos(M_PI/4.0)"     $Snozzle ) // 26
    ( #calc"$Rtube*cos(M_PI/4.0)"      #calc" $Rtube*cos(M_PI/4.0)"     $Snozzle ) // 27

    ( #calc"-$Rcold*cos(M_PI/4.0)"     #calc"$Rcold*cos(M_PI/4.0)"      0.0      ) // 28
    ( #calc"-$RcoldSq*cos(M_PI/4.0)"   #calc"$RcoldSq*cos(M_PI/4.0)"    0.0      ) // 29
    ( #calc"-$Rcold*cos(M_PI/4.0)"     #calc"$Rcold*cos(M_PI/4.0)"      $Snozzle ) // 30
    ( #calc"-$RcoldSq*cos(M_PI/4.0)"   #calc"$RcoldSq*cos(M_PI/4.0)"    $Snozzle ) // 31
    ( #calc"-$Rtube*cos(M_PI/4.0)"     #calc"$Rtube*cos(M_PI/4.0)"      0.0      ) // 32
    ( #calc"-$Rtube*cos(M_PI/4.0)"     #calc"$Rtube*cos(M_PI/4.0)"      $Snozzle ) // 33

    ( #calc"-$Rcold*cos(M_PI/4.0)"     #calc"-$Rcold*cos(M_PI/4.0)"     0.0      ) // 34
    ( #calc"-$RcoldSq*cos(M_PI/4.0)"   #calc"-$RcoldSq*cos(M_PI/4.0)"   0.0      ) // 35
    ( #calc"-$Rcold*cos(M_PI/4.0)"     #calc"-$Rcold*cos(M_PI/4.0)"     $Snozzle ) // 36
    ( #calc"-$RcoldSq*cos(M_PI/4.0)"   #calc"-$RcoldSq*cos(M_PI/4.0)"   $Snozzle ) // 37
    ( #calc"-$Rtube*cos(M_PI/4.0)"     #calc"-$Rtube*cos(M_PI/4.0)"     0.0      ) // 38
    ( #calc"-$Rtube*cos(M_PI/4.0)"     #calc"-$Rtube*cos(M_PI/4.0)"     $Snozzle ) // 39

    ( #calc" $Rnozzle*cos(M_PI/4.0)"   #calc"-$Rnozzle*cos(M_PI/4.0)"   0.0      ) // 40
    ( #calc" $Rnozzle*cos(M_PI/4.0)"   #calc"-$Rnozzle*cos(M_PI/4.0)"   $Snozzle ) // 41
    ( #calc" $Rnozzle*cos(M_PI/4.0)"   #calc" $Rnozzle*cos(M_PI/4.0)"   0.0      ) // 42
    ( #calc" $Rnozzle*cos(M_PI/4.0)"   #calc" $Rnozzle*cos(M_PI/4.0)"   $Snozzle ) // 43
    ( #calc"-$Rnozzle*cos(M_PI/4.0)"   #calc" $Rnozzle*cos(M_PI/4.0)"   0.0      ) // 44
    ( #calc"-$Rnozzle*cos(M_PI/4.0)"   #calc" $Rnozzle*cos(M_PI/4.0)"   $Snozzle ) // 45
    ( #calc"-$Rnozzle*cos(M_PI/4.0)"   #calc"-$Rnozzle*cos(M_PI/4.0)"   0.0      ) // 46
    ( #calc"-$Rnozzle*cos(M_PI/4.0)"   #calc"-$Rnozzle*cos(M_PI/4.0)"   $Snozzle ) // 47

    

);

blocks
(

// Blocks of cold diffuser
    hex ( 0  1  2  3  4  5  6  7  ) ( $RadColdElem  $SqElem  $LcoldElem ) simpleGrading ( 1 1 1 )
    hex ( 3  2  8  9  7  6  10 11 ) ( $RadColdElem  $SqElem  $LcoldElem ) simpleGrading ( 1 1 1 )
    hex ( 9  8  12 13 11 10 14 15 ) ( $RadColdElem  $SqElem  $LcoldElem ) simpleGrading ( 1 1 1 )
    hex ( 13 12 1  0  15 14 5  4  ) ( $RadColdElem  $SqElem  $LcoldElem ) simpleGrading ( 1 1 1 )
    hex ( 13 0  3  9  15 4  7  11 ) ( $SqElem       $SqElem  $LcoldElem ) simpleGrading ( 1 1 1 )

// Blocks of nozzle
    hex ( 16 17 18 19 20 21 22 23 ) ( $RadColdElem  $SqElem  $LnozzleElem ) simpleGrading ( 1 1 1 )
    hex ( 19 18 28 29 23 22 30 31 ) ( $RadColdElem  $SqElem  $LnozzleElem ) simpleGrading ( 1 1 1 )
    hex ( 34 35 29 28 36 37 31 30 ) ( $RadColdElem  $SqElem  $LnozzleElem ) simpleGrading ( 1 1 1 )
    hex ( 17 16 35 34 21 20 37 36 ) ( $RadColdElem  $SqElem  $LnozzleElem ) simpleGrading ( 1 1 1 )

    hex ( 17 24 25 18 21 26 27 22 ) ( $RadTubeElem  $SqElem  $LnozzleElem ) simpleGrading ( 1 1 1 )
    hex ( 18 25 32 28 22 27 33 30 ) ( $RadTubeElem  $SqElem  $LnozzleElem ) simpleGrading ( 1 1 1 )
    hex ( 38 34 28 32 39 36 30 33 ) ( $RadTubeElem  $SqElem  $LnozzleElem ) simpleGrading ( 1 1 1 )
    hex ( 24 17 34 38 26 21 36 39 ) ( $RadTubeElem  $SqElem  $LnozzleElem ) simpleGrading ( 1 1 1 )

    hex ( 24 40 42 25 26 41 43 27 ) ( $RadNozElem   $SqElem  $LnozzleElem ) simpleGrading ( 1 1 1 )
    hex ( 25 42 44 32 27 43 45 33 ) ( $RadNozElem   $SqElem  $LnozzleElem ) simpleGrading ( 1 1 1 )
    hex ( 46 38 32 44 47 39 33 45 ) ( $RadNozElem   $SqElem  $LnozzleElem ) simpleGrading ( 1 1 1 )
    hex ( 40 24 38 46 41 26 39 47 ) ( $RadNozElem   $SqElem  $LnozzleElem ) simpleGrading ( 1 1 1 )

    hex ( 35 16 19 29 37 20 23 31 ) ( $SqElem       $SqElem  $LnozzleElem ) simpleGrading ( 1 1 1 )

);

edges
(

// Blocks of cold diffuser
    arc  1   2   ( $Rcold           0.0              #calc"-$Lcold" )
    arc  5   6   ( $Rcold           0.0              0.0            )
    arc  2   8   ( 0.0              $Rcold           #calc"-$Lcold" )
    arc  6   10  ( 0.0              $Rcold           0.0            )
    arc  8   12  ( #calc"-$Rcold"   0.0              #calc"-$Lcold" )
    arc  10  14  ( #calc"-$Rcold"   0.0              0.0            )
    arc  12  1   ( 0.0              #calc"-$Rcold"   #calc"-$Lcold" )
    arc  14  5   ( 0.0              #calc"-$Rcold"   0.0            )

// Blocks of nozzle
    arc  17  18  ( $Rcold           0.0              0.0      )
    arc  21  22  ( $Rcold           0.0              $Snozzle )
    arc  24  25  ( $Rtube           0.0              0.0      )
    arc  26  27  ( $Rtube           0.0              $Snozzle )
    arc  18  28  ( 0.0              $Rcold           0.0      )
    arc  22  30  ( 0.0              $Rcold           $Snozzle )
    arc  25  32  ( 0.0              $Rtube           0.0      )
    arc  27  33  ( 0.0              $Rtube           $Snozzle )
    arc  28  34  ( #calc"-$Rcold"   0.0              0.0      )
    arc  30  36  ( #calc"-$Rcold"   0.0              $Snozzle )
    arc  32  38  ( #calc"-$Rtube"   0.0              0.0      )
    arc  33  39  ( #calc"-$Rtube"   0.0              $Snozzle )
    arc  34  17  ( 0.0              #calc"-$Rcold"   0.0      )
    arc  36  21  ( 0.0              #calc"-$Rcold"   $Snozzle )
    arc  38  24  ( 0.0              #calc"-$Rtube"   0.0      )
    arc  39  26  ( 0.0              #calc"-$Rtube"   $Snozzle )
    arc  40  42  ( $Rnozzle         0.0              0.0      )
    arc  41  43  ( $Rnozzle         0.0              $Snozzle )
    arc  42  44  ( 0.0              $Rnozzle         0.0      )
    arc  43  45  ( 0.0              $Rnozzle         $Snozzle )
    arc  44  46  ( #calc"-$Rnozzle" 0.0              0.0      )
    arc  45  47  ( #calc"-$Rnozzle" 0.0              $Snozzle )
    arc  46  40  ( 0.0              #calc"-$Rnozzle" 0.0      )
    arc  47  41  ( 0.0              #calc"-$Rnozzle" $Snozzle )

);

boundary
(

    WALL
    {
        type wall;
        faces
        (
            ( 1  2  6  5  )
            ( 2  8  10 6  )
            ( 8  12 14 10 )
            ( 12 1  5  14 )
        );
    }

    INLET
    {
        type patch;
        faces
        (
            ( 0 3  2  1  )
            ( 2 3  9  8  )
            ( 8 9  13 12 )
            ( 0 1  12 13 )
            ( 0 13 9  3  )
        );
    }

);


// ************************************************************************* //
