/*--------------------------------*- C++ -*----------------------------------*\
| =========                 |                                                 |
| \\      /  F ield         | OpenFOAM: The Open Source CFD Toolbox           |
|  \\    /   O peration     | Version:  v2106                                 |
|   \\  /    A nd           | Website:  www.openfoam.com                      |
|    \\/     M anipulation  |                                                 |
\*---------------------------------------------------------------------------*/
FoamFile
{
    version     2.0;
    format      ascii;
    arch        "LSB;label=32;scalar=64";
    class       polyBoundaryMesh;
    location    "constant/polyMesh";
    object      boundary;
}
// * * * * * * * * * * * * * * * * * * * * * * * * * * * * * * * * * * * * * //

6
(
    INLET
    {
        type            patch;
        nFaces          252;
        startFace       51992;
    }
    COLD
    {
        type            patch;
        nFaces          532;
        startFace       52244;
    }
    HOT
    {
        type            patch;
        nFaces          0;
        startFace       52776;
    }
    WALL
    {
        type            wall;
        inGroups        1(wall);
        nFaces          1449;
        startFace       52776;
    }
    nozzle
    {
        type            wall;
        inGroups        1(wall);
        nFaces          3268;
        startFace       54225;
    }
    procBoundary6to7
    {
        type            processor;
        inGroups        1(processor);
        nFaces          1232;
        startFace       57493;
        matchTolerance  0.0001;
        transform       unknown;
        myProcNo        6;
        neighbProcNo    7;
    }
)

// ************************************************************************* //
