/*--------------------------------*- C++ -*----------------------------------*\
| =========                 |                                                 |
| \\      /  F ield         | OpenFOAM: The Open Source CFD Toolbox           |
|  \\    /   O peration     | Version:  v2106                                 |
|   \\  /    A nd           | Website:  www.openfoam.com                      |
|    \\/     M anipulation  |                                                 |
\*---------------------------------------------------------------------------*/
FoamFile
{
    version     2.0;
    format      ascii;
    arch        "LSB;label=32;scalar=64";
    class       polyBoundaryMesh;
    location    "constant/polyMesh";
    object      boundary;
}
// * * * * * * * * * * * * * * * * * * * * * * * * * * * * * * * * * * * * * //

7
(
    INLET
    {
        type            patch;
        nFaces          0;
        startFace       52765;
    }
    COLD
    {
        type            patch;
        nFaces          0;
        startFace       52765;
    }
    HOT
    {
        type            patch;
        nFaces          0;
        startFace       52765;
    }
    WALL
    {
        type            wall;
        inGroups        1(wall);
        nFaces          942;
        startFace       52765;
    }
    nozzle
    {
        type            wall;
        inGroups        1(wall);
        nFaces          48;
        startFace       53707;
    }
    procBoundary7to5
    {
        type            processor;
        inGroups        1(processor);
        nFaces          1055;
        startFace       53755;
        matchTolerance  0.0001;
        transform       unknown;
        myProcNo        7;
        neighbProcNo    5;
    }
    procBoundary7to6
    {
        type            processor;
        inGroups        1(processor);
        nFaces          1232;
        startFace       54810;
        matchTolerance  0.0001;
        transform       unknown;
        myProcNo        7;
        neighbProcNo    6;
    }
)

// ************************************************************************* //
