/*--------------------------------*- C++ -*----------------------------------*\
| =========                 |                                                 |
| \\      /  F ield         | OpenFOAM: The Open Source CFD Toolbox           |
|  \\    /   O peration     | Version:  v2106                                 |
|   \\  /    A nd           | Website:  www.openfoam.com                      |
|    \\/     M anipulation  |                                                 |
\*---------------------------------------------------------------------------*/
FoamFile
{
    version     2.0;
    format      ascii;
    arch        "LSB;label=32;scalar=64";
    class       polyBoundaryMesh;
    location    "constant/polyMesh";
    object      boundary;
}
// * * * * * * * * * * * * * * * * * * * * * * * * * * * * * * * * * * * * * //

7
(
    INLET
    {
        type            patch;
        nFaces          0;
        startFace       52246;
    }
    COLD
    {
        type            patch;
        nFaces          0;
        startFace       52246;
    }
    HOT
    {
        type            patch;
        nFaces          0;
        startFace       52246;
    }
    WALL
    {
        type            wall;
        inGroups        1(wall);
        nFaces          1026;
        startFace       52246;
    }
    nozzle
    {
        type            wall;
        inGroups        1(wall);
        nFaces          0;
        startFace       53272;
    }
    procBoundary4to3
    {
        type            processor;
        inGroups        1(processor);
        nFaces          980;
        startFace       53272;
        matchTolerance  0.0001;
        transform       unknown;
        myProcNo        4;
        neighbProcNo    3;
    }
    procBoundary4to5
    {
        type            processor;
        inGroups        1(processor);
        nFaces          1022;
        startFace       54252;
        matchTolerance  0.0001;
        transform       unknown;
        myProcNo        4;
        neighbProcNo    5;
    }
)

// ************************************************************************* //
